# created with PyMOL 2.0.6
@<TRIPOS>MOLECULE
obj01
14 15 1                 
SMALL
USER_CHARGES
@<TRIPOS>ATOM
1	  C1	12.108	-8.617	-30.704	C.2	1	CAN1	0.000	
2	  N1	14.570	-8.662	-31.966	N.2	1	CAN1	0.000	
3	  O1	15.036	-6.601	-31.266	O.2	1	CAN1	0.000	
4	  C2	12.958	-7.550	-30.623	C.2	1	CAN1	0.000	
5	  C3	14.265	-7.522	-31.298	C.2	1	CAN1	0.000	
6	  C4	13.794	-9.789	-32.027	C.2	1	CAN1	0.000	
7	  C5	12.548	-9.766	-31.431	C.2	1	CAN1	0.000	
8	  C6	11.630	-10.945	-31.494	C.3	1	CAN1	0.000	
9	  C7	15.810	-8.849	-32.651	C.2	1	CAN1	0.000	
10	  C8	16.899	-9.473	-31.995	C.2	1	CAN1	0.000	
11	  C9	18.094	-9.605	-32.672	C.2	1	CAN1	0.000	
12	 C10	18.219	-9.099	-33.955	C.2	1	CAN1	0.000	
13	 C11	17.140	-8.520	-34.619	C.2	1	CAN1	0.000	
14	 C12	15.937	-8.411	-33.939	C.2	1	CAN1	0.000	
@<TRIPOS>BOND
1 1 4 ar
2 1 7 ar
3 2 6 ar
4 2 9 1
5 4 5 ar
6 2 5 ar
7 3 5 2
8 6 7 ar
9 7 8 1
10 9 10 ar
11 9 14 ar
12 10 11 ar
13 11 12 ar
14 12 13 ar
15 13 14 ar
@<TRIPOS>SUBSTRUCTURE
1	CAN1	1	GROUP	1 A	CAN
