@<TRIPOS>MOLECULE
PRF
 25 26 0 0 0
SMALL
USER_CHARGES

@<TRIPOS>ATOM
      1 C1         12.1080   -8.6170  -30.7040 C.2     1  CAN11      -0.0436
      2 N1         14.5700   -8.6620  -31.9660 N.am    1  CAN11      -0.0998
      3 O1         15.0360   -6.6010  -31.2660 O.2     1  CAN11      -0.2142
      4 C2         12.9580   -7.5500  -30.6230 C.2     1  CAN11       0.0537
      5 C3         14.2650   -7.5220  -31.2980 C.2     1  CAN11       0.4137
      6 C4         13.7940   -9.7890  -32.0270 C.2     1  CAN11       0.1766
      7 C5         12.5480   -9.7660  -31.4310 C.2     1  CAN11       0.0132
      8 C6         11.6300  -10.9450  -31.4940 C.3     1  CAN11      -0.0341
      9 C7         15.8100   -8.8490  -32.6510 C.ar    1  CAN11       0.2094
     10 C8         16.8990   -9.4730  -31.9950 C.ar    1  CAN11       0.0096
     11 C9         18.0940   -9.6050  -32.6720 C.ar    1  CAN11      -0.0556
     12 C10        18.2190   -9.0990  -33.9550 C.ar    1  CAN11      -0.0613
     13 C11        17.1400   -8.5200  -34.6190 C.ar    1  CAN11      -0.0556
     14 C12        15.9370   -8.4110  -33.9390 C.ar    1  CAN11       0.0096
     15 H          11.1791   -8.5938  -30.2550 H       1  CAN11       0.0625
     16 H          12.6714   -6.7302  -30.0655 H       1  CAN11       0.0720
     17 H          14.1328  -10.6370  -32.5078 H       1  CAN11       0.1378
     18 H          10.7233  -10.7193  -30.9726 H       1  CAN11       0.0279
     19 H          12.1027  -11.7898  -31.0383 H       1  CAN11       0.0279
     20 H          11.4072  -11.1693  -32.5162 H       1  CAN11       0.0279
     21 H          16.8006   -9.8224  -31.0289 H       1  CAN11       0.0683
     22 H          18.8929  -10.0798  -32.2232 H       1  CAN11       0.0620
     23 H          19.1334   -9.1521  -34.4305 H       1  CAN11       0.0618
     24 H          17.2336   -8.1818  -35.5895 H       1  CAN11       0.0620
     25 H          15.1226   -7.9915  -34.4141 H       1  CAN11       0.0683
@<TRIPOS>BOND
     1     1     4    2
     2     1     7    1
     3     2     6    1
     4     2     9    1
     5     4     5    1
     6     2     5   am
     7     3     5    2
     8     6     7    2
     9     7     8    1
    10     9    10   ar
    11     9    14   ar
    12    10    11   ar
    13    11    12   ar
    14    12    13   ar
    15    13    14   ar
    16     1    15    1
    17     4    16    1
    18     6    17    1
    19     8    18    1
    20     8    19    1
    21     8    20    1
    22    10    21    1
    23    11    22    1
    24    12    23    1
    25    13    24    1
    26    14    25    1
