@<TRIPOS>MOLECULE
ATP
 47 49 0 0 0
SMALL
USER_CHARGES

@<TRIPOS>ATOM
      1 P1          8.4250  -11.3200  -29.9140 P.3     1  CAN11       0.4808
      2 P2          6.7520  -13.5700  -29.3260 P.3     1  CAN11       0.4918
      3 P3          8.5730  -15.6460  -28.5790 P.3     1  CAN11       0.4835
      4 C1          8.2320  -17.9920  -27.4660 C.3     1  CAN11       0.0879
      5 N1         11.0490  -21.3520  -25.5870 N.ar    1  CAN11      -0.2855
      6 O1          7.7570  -10.6910  -28.7510 O.3     1  CAN11      -0.3023
      7 C2          9.1490  -19.2460  -27.4910 C.3     1  CAN11       0.1134
      8 N2         12.0280  -23.3430  -25.1180 N.ar    1  CAN11      -0.2306
      9 O2          9.8740  -11.4370  -29.6220 O.3     1  CAN11      -0.3023
     10 C3         10.4720  -19.0650  -28.2540 C.3     1  CAN11       0.1135
     11 N3         10.5390  -25.7410  -24.5210 N.pl3   1  CAN11      -0.3413
     12 O3          8.1540  -10.5330  -31.1410 O.2     1  CAN11      -0.2271
     13 C4         11.5430  -19.7510  -27.4050 C.3     1  CAN11       0.1285
     14 N4          8.6070  -24.4710  -24.7740 N.ar    1  CAN11      -0.2188
     15 O4          6.6740  -13.1710  -27.9000 O.3     1  CAN11      -0.3019
     16 C5         10.9140  -19.9720  -26.0270 C.3     1  CAN11       0.1667
     17 N5          8.7430  -22.1070  -25.3000 N.ar    1  CAN11      -0.2159
     18 O5          5.4360  -13.5090  -30.0010 O.2     1  CAN11      -0.2265
     19 C6         12.2360  -22.0490  -25.4490 C.ar    1  CAN11       0.1004
     20 O6          7.8570  -12.7890  -30.1780 O.3     1  CAN11      -0.1859
     21 C7         10.6930  -23.4170  -25.0730 C.ar    1  CAN11       0.1473
     22 O7          8.5340  -15.2650  -27.1480 O.3     1  CAN11      -0.3022
     23 C8          9.9500  -24.5400  -24.7910 C.ar    1  CAN11       0.1472
     24 O8          9.8660  -15.2550  -29.1880 O.2     1  CAN11      -0.2269
     25 C9          8.0900  -23.2500  -25.0230 C.ar    1  CAN11       0.1205
     26 O9          7.3770  -15.0360  -29.4520 O.3     1  CAN11      -0.1858
     27 C10        10.0790  -22.2310  -25.3380 C.ar    1  CAN11       0.1674
     28 O10         8.2560  -17.2200  -28.6940 O.3     1  CAN11      -0.2837
     29 O11         9.5230  -19.5740  -26.1290 O.3     1  CAN11      -0.3456
     30 O12        10.8010  -17.6860  -28.2900 O.3     1  CAN11      -0.3864
     31 O13        12.6860  -18.8980  -27.3060 O.3     1  CAN11      -0.3847
     32 H           8.5494  -17.3588  -26.6640 H       1  CAN11       0.0592
     33 H           7.2293  -18.3437  -27.3405 H       1  CAN11       0.0592
     34 H           8.1190   -9.8018  -28.6121 H       1  CAN11       0.2220
     35 H           8.5777  -20.0020  -27.9880 H       1  CAN11       0.0647
     36 H          10.2430  -10.5551  -29.4577 H       1  CAN11       0.2220
     37 H          10.4022  -19.4580  -29.2468 H       1  CAN11       0.0647
     38 H          11.5203  -25.8203  -24.5266 H       1  CAN11       0.1438
     39 H           9.9826  -26.5281  -24.3206 H       1  CAN11       0.1438
     40 H          11.8639  -20.6784  -27.8314 H       1  CAN11       0.0665
     41 H           6.2939  -12.2810  -27.8336 H       1  CAN11       0.2220
     42 H          11.4180  -19.3855  -25.2875 H       1  CAN11       0.0866
     43 H          13.1698  -21.6306  -25.5829 H       1  CAN11       0.1030
     44 H           8.7233  -14.3177  -27.0604 H       1  CAN11       0.2220
     45 H           7.0604  -23.1844  -24.9977 H       1  CAN11       0.1048
     46 H          10.8607  -17.3441  -27.3842 H       1  CAN11       0.2100
     47 H          12.4224  -18.0475  -26.9212 H       1  CAN11       0.2101
@<TRIPOS>BOND
     1     1     6    1
     2     1     9    1
     3     1    12    2
     4     1    20    1
     5     2    15    1
     6     2    18    2
     7     2    20    1
     8     2    26    1
     9     3    22    1
    10     3    24    2
    11     3    26    1
    12     3    28    1
    13     4     7    1
    14     4    28    1
    15     4    32    1
    16     4    33    1
    17     5    19   ar
    18     5    27   ar
    19     5    16    1
    20     6    34    1
    21     7    10    1
    22     7    29    1
    23     7    35    1
    24     8    21   ar
    25     8    19   ar
    26     9    36    1
    27    10    13    1
    28    10    30    1
    29    10    37    1
    30    11    23    1
    31    11    38    1
    32    11    39    1
    33    13    16    1
    34    13    31    1
    35    13    40    1
    36    14    25   ar
    37    14    23   ar
    38    15    41    1
    39    16    29    1
    40    16    42    1
    41    17    27   ar
    42    17    25   ar
    43    19    43    1
    44    21    23   ar
    45    21    27   ar
    46    22    44    1
    47    25    45    1
    48    30    46    1
    49    31    47    1
