@<TRIPOS>MOLECULE

25 26 1
SMALL
NO_CHARGES
@<TRIPOS>ATOM
1	C1    -2.0857    -3.6123     0.0032	C.2	1	noname
2	C2    -1.2134    -3.3125    -1.0538	C.2	1	noname
3	C3    -0.5189    -2.0887    -1.0480	C.2	1	noname
4	N1    -0.6836    -1.1966    -0.0144	N.3	1	noname
5	C4    -1.5357    -1.4887     1.0220	C.2	1	noname
6	C5    -2.2569    -2.7028     1.0670	C.2	1	noname
7	O1     0.2336    -1.8583    -2.0269	O.2	1	noname
8	C6    -3.1799    -2.9989     2.1869	C.3	1	noname
9	C7     0.0009    -0.0002     0.0023	C.2	1	noname
10	C8    -0.6921     1.2346     0.0024	C.2	1	noname
11	C9     0.0088     2.4540     0.0038	C.2	1	noname
12	C10     1.4154     2.4573     0.0036	C.2	1	noname
13	C11     2.1189     1.2393     0.0096	C.2	1	noname
14	C12     1.4164     0.0209     0.0183	C.2	1	noname
15	H1    -2.6324    -4.5553    -0.0022	H	1	noname
16	H2    -1.0767    -4.0220    -1.8699	H	1	noname
17	H3    -1.6406    -0.7497     1.8164	H	1	noname
18	H4    -3.2757    -4.0784     2.3031	H	1	noname
19	H5    -2.7849    -2.5680     3.1069	H	1	noname
20	H6    -4.1584    -2.5680     1.9748	H	1	noname
21	H7    -1.7820     1.2467     0.0015	H	1	noname
22	H8    -0.5382     3.3968     0.0049	H	1	noname
23	H9     1.9591     3.4020    -0.0012	H	1	noname
24	H10     3.2089     1.2396     0.0076	H	1	noname
25	H11     1.9741    -0.9154     0.0375	H	1	noname
@<TRIPOS>BOND
1	1	2	2
2	1	6	1
3	2	3	1
4	3	4	1
5	4	5	1
6	5	6	2
7	3	7	2
8	6	8	1
9	4	9	1
10	9	10	1
11	9	14	2
12	10	11	2
13	11	12	1
14	12	13	2
15	13	14	1
16	1	15	1
17	2	16	1
18	5	17	1
19	8	18	1
20	8	19	1
21	8	20	1
22	10	21	1
23	11	22	1
24	12	23	1
25	13	24	1
26	14	25	1
@<TRIPOS>SUBSTRUCTURE
1	noname	1
