@<TRIPOS>MOLECULE
ATP
47 49 1
SMALL
NO_CHARGES
@<TRIPOS>ATOM
1	P1     0.1860    10.5209     0.2256	P	1	noname
2	O1     0.3541    10.5090     1.6955	O.2	1	noname
3	O2     1.2872    11.4937    -0.4322	O.3	1	noname
4	O3    -1.2873    11.0537    -0.1418	O.3	1	noname
5	P2    -0.7516     8.1151     0.3465	P	1	noname
6	O4    -0.5686     8.1392     1.8143	O.2	1	noname
7	O5    -2.2093     8.6881    -0.0222	O.3	1	noname
8	O6     0.3760     9.0293    -0.3495	O.3	1	noname
9	P3    -1.7688     5.7477     0.5478	P	1	noname
10	O7    -3.0941     6.3105     0.2045	O.2	1	noname
11	O8    -1.5532     5.8143     2.1415	O.3	1	noname
12	O9    -0.6181     6.6013    -0.1851	O.3	1	noname
13	O10    -1.6949     4.2157     0.0596	O.3	1	noname
14	C1    -2.7352     3.5143     0.7414	C.3	1	noname
15	C2    -2.7202     2.0432     0.3199	C.3	1	noname
16	O11    -1.4632     1.4300     0.6808	O.3	1	noname
17	C3    -3.7862     1.2454     1.1016	C.3	1	noname
18	O12    -4.9699     1.0866     0.3160	O.3	1	noname
19	C4    -3.1177    -0.1252     1.3597	C.3	1	noname
20	O13    -3.8690    -1.1726     0.7428	O.3	1	noname
21	C5    -1.7251     0.0108     0.7060	C.3	1	noname
22	N1    -0.7148    -0.6809     1.5083	N.3	1	noname
23	C6    -0.0015    -0.1479     2.5403	C.2	1	noname
24	N2     0.8083    -1.0412     3.0301	N.2	1	noname
25	C7     0.6613    -2.2036     2.3496	C.2	1	noname
26	C8     1.2580    -3.4735     2.4227	C.2	1	noname
27	N3     2.2282    -3.7460     3.3707	N.3	1	noname
28	N4     0.8647    -4.4085     1.5644	N.2	1	noname
29	C9    -0.0596    -4.1576     0.6562	C.2	1	noname
30	N5    -0.6417    -2.9814     0.5467	N.2	1	noname
31	C10    -0.3135    -1.9848     1.3627	C.2	1	noname
@<TRIPOS>BOND
1	1	2	2
2	1	3	1
3	1	4	1
4	1	8	1
5	3	32	1
6	4	33	1
7	5	6	2
8	5	7	1
9	5	8	1
10	5	12	1
11	7	34	1
12	9	10	2
13	9	11	1
14	9	12	1
15	9	13	1
16	11	35	1
17	13	14	1
18	14	15	1
19	14	36	1
20	14	37	1
21	15	16	1
22	15	17	1
23	15	38	1
24	16	21	1
25	17	18	1
26	17	19	1
27	17	39	1
28	18	40	1
29	19	20	1
30	19	21	1
31	19	41	1
32	20	42	1
33	21	22	1
34	21	43	1
35	22	23	1
36	22	31	1
37	23	24	2
38	23	44	1
39	24	25	1
40	25	26	1
41	25	31	2
42	26	27	1
43	26	28	2
44	27	45	1
45	27	46	1
46	28	29	1
47	29	30	2
48	29	47	1
49	30	31	1
@<TRIPOS>SUBSTRUCTURE
1	noname	1
