# created with PyMOL 2.3.3
@<TRIPOS>MOLECULE
obj01
14 15 1                 
SMALL
USER_CHARGES
@<TRIPOS>ATOM
1	  C1	2.141	11.346	-30.846	C.2	1	CAN1	0.000	
2	  N1	-0.198	10.553	-32.036	N.2	1	CAN1	0.000	
3	  O1	0.567	8.470	-32.370	O.2	1	CAN1	0.000	
4	  C2	1.973	10.074	-31.328	C.2	1	CAN1	0.000	
5	  C3	0.749	9.596	-31.962	C.2	1	CAN1	0.000	
6	  C4	-0.113	11.843	-31.564	C.2	1	CAN1	0.000	
7	  C5	1.046	12.255	-30.966	C.2	1	CAN1	0.000	
8	  C6	1.225	13.651	-30.453	C.3	1	CAN1	0.000	
9	  C7	-1.478	10.336	-32.585	C.2	1	CAN1	0.000	
10	  C8	-1.664	9.400	-33.589	C.2	1	CAN1	0.000	
11	  C9	-2.925	9.221	-34.130	C.2	1	CAN1	0.000	
12	 C10	-3.980	9.999	-33.678	C.2	1	CAN1	0.000	
13	 C11	-3.782	10.949	-32.684	C.2	1	CAN1	0.000	
14	 C12	-2.528	11.111	-32.118	C.2	1	CAN1	0.000	
@<TRIPOS>BOND
1 1 4 ar
2 1 7 ar
3 2 6 ar
4 2 9 1
5 4 5 ar
6 2 5 ar
7 3 5 2
8 6 7 ar
9 7 8 1
10 9 10 ar
11 9 14 ar
12 10 11 ar
13 11 12 ar
14 12 13 ar
15 13 14 ar
@<TRIPOS>SUBSTRUCTURE
1	CAN1	1	GROUP	1 A	CAN
