@<TRIPOS>MOLECULE
PRF
 25 26 0 0 0
SMALL
USER_CHARGES

@<TRIPOS>ATOM
      1 C1          2.1410   11.3460  -30.8460 C.2     1  CAN11      -0.0436
      2 N1         -0.1980   10.5530  -32.0360 N.am    1  CAN11      -0.0998
      3 O1          0.5670    8.4700  -32.3700 O.2     1  CAN11      -0.2142
      4 C2          1.9730   10.0740  -31.3280 C.2     1  CAN11       0.0537
      5 C3          0.7490    9.5960  -31.9620 C.2     1  CAN11       0.4137
      6 C4         -0.1130   11.8430  -31.5640 C.2     1  CAN11       0.1766
      7 C5          1.0460   12.2550  -30.9660 C.2     1  CAN11       0.0132
      8 C6          1.2250   13.6510  -30.4530 C.3     1  CAN11      -0.0341
      9 C7         -1.4780   10.3360  -32.5850 C.ar    1  CAN11       0.2094
     10 C8         -1.6640    9.4000  -33.5890 C.ar    1  CAN11       0.0096
     11 C9         -2.9250    9.2210  -34.1300 C.ar    1  CAN11      -0.0556
     12 C10        -3.9800    9.9990  -33.6780 C.ar    1  CAN11      -0.0613
     13 C11        -3.7820   10.9490  -32.6840 C.ar    1  CAN11      -0.0556
     14 C12        -2.5280   11.1110  -32.1180 C.ar    1  CAN11       0.0096
     15 H           3.0300   11.6375  -30.4104 H       1  CAN11       0.0625
     16 H           2.7608    9.4137  -31.2369 H       1  CAN11       0.0720
     17 H          -0.9116   12.4896  -31.6598 H       1  CAN11       0.1378
     18 H           2.2013   13.7520  -30.0270 H       1  CAN11       0.0279
     19 H           0.4869   13.8536  -29.7053 H       1  CAN11       0.0279
     20 H           1.1147   14.3445  -31.2603 H       1  CAN11       0.0279
     21 H          -0.8676    8.8400  -33.9312 H       1  CAN11       0.0683
     22 H          -3.0792    8.5132  -34.8650 H       1  CAN11       0.0620
     23 H          -4.9204    9.8712  -34.0835 H       1  CAN11       0.0618
     24 H          -4.5701   11.5349  -32.3668 H       1  CAN11       0.0620
     25 H          -2.3782   11.7969  -31.3616 H       1  CAN11       0.0683
@<TRIPOS>BOND
     1     1     4    2
     2     1     7    1
     3     2     6    1
     4     2     9    1
     5     4     5    1
     6     2     5   am
     7     3     5    2
     8     6     7    2
     9     7     8    1
    10     9    10   ar
    11     9    14   ar
    12    10    11   ar
    13    11    12   ar
    14    12    13   ar
    15    13    14   ar
    16     1    15    1
    17     4    16    1
    18     6    17    1
    19     8    18    1
    20     8    19    1
    21     8    20    1
    22    10    21    1
    23    11    22    1
    24    12    23    1
    25    13    24    1
    26    14    25    1
